Carbon_emission/Feeders/8500-Node/IEEE8500_EXP_POWERS.CSV
Element, Terminal, P(kW), Q(kvar),  P_Normal, Q_Normal, P_Emergency, Q_Emergency
"Line.HVMV_SUB_CONNECTOR",   1,     -2546.6,       341.7,         0.0,         0.0,         0.0,         0.0
"Line.HVMV_SUB_CONNECTOR",   2,      2546.6,      -341.7
"Line.LN5502549-1"      ,   1,        18.3,         4.9,         0.0,         0.0,         0.0,         0.0
"Line.LN5502549-1"      ,   2,       -18.3,        -4.9
"Line.LN6259988-1"      ,   1,         3.3,         1.0,         0.0,         0.0,         0.0,         0.0
"Line.LN6259988-1"      ,   2,        -3.3,        -1.0
"Line.LN6077796-1"      ,   1,         9.4,         2.5,         0.0,         0.0,         0.0,         0.0
"Line.LN6077796-1"      ,   2,        -9.4,        -2.5
"Line.LN5835135-2"      ,   1,        66.3,        17.8,         0.0,         0.0,         0.0,         0.0
"Line.LN5835135-2"      ,   2,       -66.3,       -17.8
"Line.LN5896826-1"      ,   1,         2.2,         0.6,         0.0,         0.0,         0.0,         0.0
"Line.LN5896826-1"      ,   2,        -2.2,        -0.6
"Line.LN5714038-1"      ,   1,        13.0,         3.4,         0.0,         0.0,         0.0,         0.0
"Line.LN5714038-1"      ,   2,       -13.0,        -3.4
"Line.LN5653457-1"      ,   1,       361.0,        97.7,         0.0,         0.0,         0.0,         0.0
"Line.LN5653457-1"      ,   2,      -360.9,       -97.7
"Line.LN5835173-1"      ,   1,       503.2,       137.3,         0.0,         0.0,         0.0,         0.0
"Line.LN5835173-1"      ,   2,      -503.1,      -137.3
"Line.LN6321415-1"      ,   1,         7.9,         2.0,         0.0,         0.0,         0.0,         0.0
"Line.LN6321415-1"      ,   2,        -7.9,        -2.1
"Line.LN5565092-1"      ,   1,         3.4,         1.0,         0.0,         0.0,         0.0,         0.0
"Line.LN5565092-1"      ,   2,        -3.4,        -1.0
"Line.LN6073648-1"      ,   1,        10.4,         2.9,         0.0,         0.0,         0.0,         0.0
"Line.LN6073648-1"      ,   2,       -10.4,        -2.9
"Line.LN5774457-1"      ,   1,       313.1,        84.3,         0.0,         0.0,         0.0,         0.0
"Line.LN5774457-1"      ,   2,      -313.0,       -84.3
"Line.LN5534966-3"      ,   1,        43.0,        11.8,         0.0,         0.0,         0.0,         0.0
"Line.LN5534966-3"      ,   2,       -43.0,       -11.8
"Line.LN5859996-1"      ,   1,         8.3,         2.3,         0.0,         0.0,         0.0,         0.0
"Line.LN5859996-1"      ,   2,        -8.3,        -2.3
"Line.LN6138610-2"      ,   1,      1302.4,       356.0,         0.0,         0.0,         0.0,         0.0
"Line.LN6138610-2"      ,   2,     -1301.8,      -355.8
"Line.LN6258435-3"      ,   1,        12.8,         3.5,         0.0,         0.0,         0.0,         0.0
"Line.LN6258435-3"      ,   2,       -12.8,        -3.5
"Line.LN5804790-1"      ,   1,         7.9,         2.1,         0.0,         0.0,         0.0,         0.0
"Line.LN5804790-1"      ,   2,        -7.9,        -2.1
"Line.LN6900591-14"     ,   1,        40.3,        10.7,         0.0,         0.0,         0.0,         0.0
"Line.LN6900591-14"     ,   2,       -40.3,       -10.7
"Line.LN6409873-1"      ,   1,        46.0,        12.0,         0.0,         0.0,         0.0,         0.0
"Line.LN6409873-1"      ,   2,       -46.0,       -12.0
"Line.LN6014135-1"      ,   1,        24.2,         6.9,         0.0,         0.0,         0.0,         0.0
"Line.LN6014135-1"      ,   2,       -24.2,        -6.9
"Line.LN6077784-1"      ,   1,       734.5,       199.0,         0.0,         0.0,         0.0,         0.0
"Line.LN6077784-1"      ,   2,      -734.4,      -199.0
"Line.LN5744338-1"      ,   1,       102.4,        27.9,         0.0,         0.0,         0.0,         0.0
"Line.LN5744338-1"      ,   2,      -102.4,       -27.9
"Line.LN6991381-4"      ,   1,        25.9,         7.1,         0.0,         0.0,         0.0,         0.0
"Line.LN6991381-4"      ,   2,       -25.9,        -7.1
"Line.LN5774480-1"      ,   1,       120.7,        33.0,         0.0,         0.0,         0.0,         0.0
"Line.LN5774480-1"      ,   2,      -120.6,       -33.0
"Line.LN5986938-3"      ,   1,        27.3,         7.3,         0.0,         0.0,         0.0,         0.0
"Line.LN5986938-3"      ,   2,       -27.3,        -7.3
"Line.LN5894230-1"      ,   1,         2.9,         0.8,         0.0,         0.0,         0.0,         0.0
"Line.LN5894230-1"      ,   2,        -2.9,        -0.9
"Line.LN5683858-3"      ,   1,        17.6,         5.2,         0.0,         0.0,         0.0,         0.0
"Line.LN5683858-3"      ,   2,       -17.6,        -5.2
"Line.LN5920279-5"      ,   1,     -3880.3,      2431.2,         0.0,         0.0,         0.0,         0.0
"Line.LN5920279-5"      ,   2,      3880.8,     -2430.0
"Line.LN6439600-1"      ,   1,         6.8,         1.8,         0.0,         0.0,         0.0,         0.0
"Line.LN6439600-1"      ,   2,        -6.8,        -1.9
"Line.LN5589097-1"      ,   1,         2.9,         0.9,         0.0,         0.0,         0.0,         0.0
"Line.LN5589097-1"      ,   2,        -2.9,        -0.9
"Line.LN5651975-1"      ,   1,       423.5,       115.5,         0.0,         0.0,         0.0,         0.0
"Line.LN5651975-1"      ,   2,      -423.4,      -115.5
"Line.LN5865236-1"      ,   1,         9.7,         2.7,         0.0,         0.0,         0.0,         0.0
"Line.LN5865236-1"      ,   2,        -9.7,        -2.7
"Line.LN5593232-1"      ,   1,         2.6,         0.7,         0.0,         0.0,         0.0,         0.0
"Line.LN5593232-1"      ,   2,        -2.6,        -0.8
"Line.LN5740283-1"      ,   1,         5.5,         1.5,         0.0,         0.0,         0.0,         0.0
"Line.LN5740283-1"      ,   2,        -5.5,        -1.5
"Line.LN6106559-1"      ,   1,        11.7,         3.2,         0.0,         0.0,         0.0,         0.0
"Line.LN6106559-1"      ,   2,       -11.7,        -3.3
"Line.LN5714056-3"      ,   1,       345.2,        93.9,         0.0,         0.0,         0.0,         0.0
"Line.LN5714056-3"      ,   2,      -344.9,       -93.8
"Line.LN5985355-3"      ,   1,       199.4,        54.9,         0.0,         0.0,         0.0,         0.0
"Line.LN5985355-3"      ,   2,      -199.4,       -54.9
"Line.LN5531956-1"      ,   1,        10.5,         2.8,         0.0,         0.0,         0.0,         0.0
"Line.LN5531956-1"      ,   2,       -10.5,        -2.8
"Line.LN5650048-1"      ,   1,         8.9,         2.4,         0.0,         0.0,         0.0,         0.0
"Line.LN5650048-1"      ,   2,        -8.9,        -2.4
"Line.LN6290203-1"      ,   1,       405.4,       110.6,         0.0,         0.0,         0.0,         0.0
"Line.LN6290203-1"      ,   2,      -405.4,      -110.5
"Line.LN6134414-1"      ,   1,        10.5,         2.9,         0.0,         0.0,         0.0,         0.0
"Line.LN6134414-1"      ,   2,       -10.5,        -2.9
"Line.LN6259998-2"      ,   1,        20.0,         5.4,         0.0,         0.0,         0.0,         0.0
"Line.LN6259998-2"      ,   2,       -20.0,        -5.4
"Line.LN6078767-1"      ,   1,       348.4,      -532.7,         0.0,         0.0,         0.0,         0.0
"Line.LN6078767-1"      ,   2,      -348.3,       532.7
"Line.LN6017300-1"      ,   1,         2.9,         0.8,         0.0,         0.0,         0.0,         0.0
"Line.LN6017300-1"      ,   2,        -2.9,        -0.8
"Line.LN8979257-2"      ,   1,        11.9,         3.2,         0.0,         0.0,         0.0,         0.0
"Line.LN8979257-2"      ,   2,       -11.9,        -3.2
"Line.LN81048109-1"     ,   1,        16.0,         4.3,         0.0,         0.0,         0.0,         0.0
"Line.LN81048109-1"     ,   2,       -16.0,        -4.3
"Line.293471"           ,   1,         9.1,         2.6,         0.0,         0.0,         0.0,         0.0
"Line.293471"           ,   2,        -9.1,        -2.6
"Line.LN5534965-2"      ,   1,         3.4,         1.0,         0.0,         0.0,         0.0,         0.0
"Line.LN5534965-2"      ,   2,        -3.4,        -1.0
"Line.LN5655683-1"      ,   1,       114.0,        30.8,         0.0,         0.0,         0.0,         0.0
"Line.LN5655683-1"      ,   2,      -114.0,       -30.8
"Line.LN5686247-1"      ,   1,         6.8,         1.9,         0.0,         0.0,         0.0,         0.0
"Line.LN5686247-1"      ,   2,        -6.8,        -1.9
"Line.LN6048642-1"      ,   1,         0.0,        -0.0,         0.0,         0.0,         0.0,         0.0
"Line.LN6048642-1"      ,   2,        -0.0,         0.0
"Line.LN5928544-3"      ,   1,        46.2,        12.7,         0.0,         0.0,         0.0,         0.0
"Line.LN5928544-3"      ,   2,       -46.2,       -12.7
"Line.LN6108172-1"      ,   1,         9.6,         2.6,         0.0,         0.0,         0.0,         0.0
"Line.LN6108172-1"      ,   2,        -9.6,        -2.7
"Line.LN5532754-1"      ,   1,       376.0,       102.5,         0.0,         0.0,         0.0,         0.0
"Line.LN5532754-1"      ,   2,      -375.9,      -102.5
"Line.LN5591834-1"      ,   1,        15.6,         4.2,         0.0,         0.0,         0.0,         0.0
"Line.LN5591834-1"      ,   2,       -15.6,        -4.2
"Line.LN6347196-2"      ,   1,       217.1,        59.3,         0.0,         0.0,         0.0,         0.0
"Line.LN6347196-2"      ,   2,      -217.1,       -59.4
"Line.LN5532741-1"      ,   1,        29.0,         7.9,         0.0,         0.0,         0.0,         0.0
"Line.LN5532741-1"      ,   2,       -29.0,        -7.9
"Line.LN5804803-1"      ,   1,         2.9,         0.7,         0.0,         0.0,         0.0,         0.0
"Line.LN5804803-1"      ,   2,        -2.9,        -0.8
"Line.LN6169248-1"      ,   1,      1080.1,       295.0,         0.0,         0.0,         0.0,         0.0
"Line.LN6169248-1"      ,   2,     -1079.6,      -294.5
"Line.LN5532786-2"      ,   1,         7.4,         2.0,         0.0,         0.0,         0.0,         0.0
"Line.LN5532786-2"      ,   2,        -7.4,        -2.0
"Line.LN5744339-1"      ,   1,        52.8,        14.7,         0.0,         0.0,         0.0,         0.0
"Line.LN5744339-1"      ,   2,       -52.8,       -14.7
"Line.LN5531255-3"      ,   1,        79.1,        21.4,         0.0,         0.0,         0.0,         0.0
"Line.LN5531255-3"      ,   2,       -79.1,       -21.4
"Line.LN5926308-2"      ,   1,       364.1,        99.8,         0.0,         0.0,         0.0,         0.0
"Line.LN5926308-2"      ,   2,      -364.1,       -99.8
"Line.LN5683856-3"      ,   1,         3.7,         1.0,         0.0,         0.0,         0.0,         0.0
"Line.LN5683856-3"      ,   2,        -3.7,        -1.0
"Line.LN6171502-1"      ,   1,        10.7,         2.9,         0.0,         0.0,         0.0,         0.0
"Line.LN6171502-1"      ,   2,       -10.7,        -2.9
"Line.LN5593228-1"      ,   1,         4.1,         1.1,         0.0,         0.0,         0.0,         0.0
"Line.LN5593228-1"      ,   2,        -4.1,        -1.2
"Line.LN6380800-1"      ,   1,         3.9,         1.1,         0.0,         0.0,         0.0,         0.0
"Line.LN6380800-1"      ,   2,        -3.9,        -1.1
"Line.LN6199525-2"      ,   1,         3.6,         1.0,         0.0,         0.0,         0.0,         0.0
"Line.LN6199525-2"      ,   2,        -3.6,        -1.0
"Line.LN5772710-2"      ,   1,        48.3,        13.1,         0.0,         0.0,         0.0,         0.0
"Line.LN5772710-2"      ,   2,       -48.3,       -13.1
"Line.LN8961760-1"      ,   1,        23.1,         6.1,         0.0,         0.0,         0.0,         0.0
"Line.LN8961760-1"      ,   2,       -23.1,        -6.1
"Line.LN6047556-1"      ,   1,         6.6,         1.8,         0.0,         0.0,         0.0,         0.0
"Line.LN6047556-1"      ,   2,        -6.6,        -1.8
"Line.LN6138603-1"      ,   1,        10.6,         2.8,         0.0,         0.0,         0.0,         0.0
"Line.LN6138603-1"      ,   2,       -10.6,        -2.8
"Line.LN6108139-1"      ,   1,         4.1,         1.1,         0.0,         0.0,         0.0,         0.0
"Line.LN6108139-1"      ,   2,        -4.1,        -1.1
"Line.LN6388581-2"      ,   1,         3.6,         0.9,         0.0,         0.0,         0.0,         0.0
"Line.LN6388581-2"      ,   2,        -3.6,        -0.9
"Line.LN5774460-1"      ,   1,         5.9,         1.6,         0.0,         0.0,         0.0,         0.0
"Line.LN5774460-1"      ,   2,        -5.9,        -1.6
"Line.LN5624387-1"      ,   1,         7.4,         2.0,         0.0,         0.0,         0.0,         0.0
"Line.LN5624387-1"      ,   2,        -7.4,        -2.1
"Line.LN6137087-1"      ,   1,        27.0,         7.7,         0.0,         0.0,         0.0,         0.0
"Line.LN6137087-1"      ,   2,       -27.0,        -7.7
"Line.LN6077809-1"      ,   1,        34.1,         9.6,         0.0,         0.0,         0.0,         0.0
"Line.LN6077809-1"      ,   2,       -34.1,        -9.7
"Line.LN6440079-1"      ,   1,        15.6,         4.2,         0.0,         0.0,         0.0,         0.0
"Line.LN6440079-1"      ,   2,       -15.6,        -4.2
"Line.LN5804794-1"      ,   1,        11.7,        12.2,         0.0,         0.0,         0.0,         0.0
"Line.LN5804794-1"      ,   2,       -11.7,       -12.2
"Line.LN5654484-1"      ,   1,         2.1,         0.7,         0.0,         0.0,         0.0,         0.0
"Line.LN5654484-1"      ,   2,        -2.1,        -0.7
"Line.LN5774465-1"      ,   1,         4.1,         1.1,         0.0,         0.0,         0.0,         0.0
"Line.LN5774465-1"      ,   2,        -4.1,        -1.1
"Line.LN5473349-1"      ,   1,      3617.3,      -183.3,         0.0,         0.0,         0.0,         0.0
"Line.LN5473349-1"      ,   2,     -3617.0,       184.2
"Line.LN6169253-1"      ,   1,         5.5,         1.5,         0.0,         0.0,         0.0,         0.0
"Line.LN6169253-1"      ,   2,        -5.5,        -1.5
"Line.LN6350536-1"      ,   1,         3.6,         1.0,         0.0,         0.0,         0.0,         0.0
"Line.LN6350536-1"      ,   2,        -3.6,        -1.0
"Line.LN6048523-1"      ,   1,        69.8,        19.1,         0.0,         0.0,         0.0,         0.0
"Line.LN6048523-1"      ,   2,       -69.7,       -19.1
"Line.LN5594152-1"      ,   1,        77.1,        21.1,         0.0,         0.0,         0.0,         0.0
"Line.LN5594152-1"      ,   2,       -77.1,       -21.1
"Line.LN5865248-1"      ,   1,       393.9,       108.0,         0.0,         0.0,         0.0,         0.0
"Line.LN5865248-1"      ,   2,      -393.8,      -107.9
"Line.LN6046143-1"      ,   1,         2.0,         0.5,         0.0,         0.0,         0.0,         0.0
"Line.LN6046143-1"      ,   2,        -2.0,        -0.6
"Line.LN5803287-1"      ,   1,         7.1,         2.0,         0.0,         0.0,         0.0,         0.0
"Line.LN5803287-1"      ,   2,        -7.1,        -2.0
"Line.LN5589094-1"      ,   1,       117.8,        32.1,         0.0,         0.0,         0.0,         0.0
"Line.LN5589094-1"      ,   2,      -117.7,       -32.1
"Line.LN5954983-1"      ,   1,        79.1,        21.4,         0.0,         0.0,         0.0,         0.0
"Line.LN5954983-1"      ,   2,       -79.1,       -21.4
"Line.LN5924696-2"      ,   1,         3.3,         0.9,         0.0,         0.0,         0.0,         0.0
"Line.LN5924696-2"      ,   2,        -3.3,        -0.9
"Line.LN6506311-4"      ,   1,         3.3,         0.9,         0.0,         0.0,         0.0,         0.0
"Line.LN6506311-4"      ,   2,        -3.3,        -0.9
"Line.LN5653493-1"      ,   1,        70.8,        19.3,         0.0,         0.0,         0.0,         0.0
"Line.LN5653493-1"      ,   2,       -70.8,       -19.3
"Line.LN5684836-1"      ,   1,      3654.2,      -166.7,         0.0,         0.0,         0.0,         0.0
"Line.LN5684836-1"      ,   2,     -3653.2,       169.3
"Line.LN5715016-3"      ,   1,         3.5,         0.9,         0.0,         0.0,         0.0,         0.0
"Line.LN5715016-3"      ,   2,        -3.5,        -1.0
"Line.LN6138614-1"      ,   1,       408.8,      -857.2,         0.0,         0.0,         0.0,         0.0
"Line.LN6138614-1"      ,   2,      -408.2,       857.4
"Line.LN6077781-2"      ,   1,      3096.0,       856.0,         0.0,         0.0,         0.0,         0.0
"Line.LN6077781-2"      ,   2,     -3091.8,      -851.8
"Line.LN5675121-1"      ,   1,         5.1,         1.3,         0.0,         0.0,         0.0,         0.0
"Line.LN5675121-1"      ,   2,        -5.1,        -1.4
"Line.LN5773046-1"      ,   1,       126.4,        34.7,         0.0,         0.0,         0.0,         0.0
"Line.LN5773046-1"      ,   2,      -126.3,       -34.7
"Line.LN6380809-2"      ,   1,       450.4,       123.5,         0.0,         0.0,         0.0,         0.0
"Line.LN6380809-2"      ,   2,      -450.4,      -123.5
"Line.LN6018326-1"      ,   1,         5.2,         1.4,         0.0,         0.0,         0.0,         0.0
"Line.LN6018326-1"      ,   2,        -5.2,        -1.4
"Line.LN5472356-1"      ,   1,         4.1,         1.1,         0.0,         0.0,         0.0,         0.0
"Line.LN5472356-1"      ,   2,        -4.1,        -1.1
"Line.LN6139641-1"      ,   1,     -3397.9,      2649.8,         0.0,         0.0,         0.0,         0.0
"Line.LN6139641-1"      ,   2,      3398.7,     -2648.0
"Line.LN6018341-1"      ,   1,      1269.7,      -609.8,         0.0,         0.0,         0.0,         0.0
"Line.LN6018341-1"      ,   2,     -1269.5,       610.2
"Line.LN6017302-1"      ,   1,       161.1,        43.9,         0.0,         0.0,         0.0,         0.0
"Line.LN6017302-1"      ,   2,      -161.1,       -43.9
"Line.LN6199505-1"      ,   1,         1.5,         0.4,         0.0,         0.0,         0.0,         0.0
"Line.LN6199505-1"      ,   2,        -1.5,        -0.4
"Line.LN5682327-1"      ,   1,        89.2,        24.2,         0.0,         0.0,         0.0,         0.0
"Line.LN5682327-1"      ,   2,       -89.2,       -24.2
"Line.LN6290243-1"      ,   1,        11.0,         3.0,         0.0,         0.0,         0.0,         0.0
"Line.LN6290243-1"      ,   2,       -11.0,        -3.0
"Line.X8223_48332_SW"   ,   1,       625.9,      -787.9,         0.0,         0.0,         0.0,         0.0
"Line.X8223_48332_SW"   ,   2,      -625.9,       787.9
"Line.LN6413567-3"      ,   1,       626.0,      -787.9,         0.0,         0.0,         0.0,         0.0
"Line.LN6413567-3"      ,   2,      -625.9,       787.9
"Line.LN5591731-3"      ,   1,     -3848.1,      2448.1,         0.0,         0.0,         0.0,         0.0
"Line.LN5591731-3"      ,   2,      3848.1,     -2448.0
"Line.LN5653470-1"      ,   1,         7.6,         2.2,         0.0,         0.0,         0.0,         0.0
"Line.LN5653470-1"      ,   2,        -7.6,        -2.3
"Line.LN6017316-1"      ,   1,       168.9,        46.0,         0.0,         0.0,         0.0,         0.0
"Line.LN6017316-1"      ,   2,      -168.8,       -45.9
"Line.LN5926299-1"      ,   1,        10.2,         2.8,         0.0,         0.0,         0.0,         0.0
"Line.LN5926299-1"      ,   2,       -10.2,        -2.8
"Line.LN5683831-1"      ,   1,       402.9,       110.5,         0.0,         0.0,         0.0,         0.0
"Line.LN5683831-1"      ,   2,      -402.8,      -110.5
"Line.LN6352700-1"      ,   1,        16.9,         4.7,         0.0,         0.0,         0.0,         0.0
"Line.LN6352700-1"      ,   2,       -16.9,        -4.7
"Line.LN6047570-1"      ,   1,         3.0,         0.8,         0.0,         0.0,         0.0,         0.0
"Line.LN6047570-1"      ,   2,        -3.0,        -0.8
"Line.LN5624342-1"      ,   1,      3668.0,      -156.7,         0.0,         0.0,         0.0,         0.0
"Line.LN5624342-1"      ,   2,     -3667.2,       158.8
"Line.LN6259992-1"      ,   1,         3.4,         1.0,         0.0,         0.0,         0.0,         0.0
"Line.LN6259992-1"      ,   2,        -3.4,        -1.0
"Line.LN5841919-1"      ,   1,        12.0,         3.2,         0.0,         0.0,         0.0,         0.0
"Line.LN5841919-1"      ,   2,       -12.0,        -3.2
"Line.LN6380811-1"      ,   1,        56.7,        15.5,         0.0,         0.0,         0.0,         0.0
"Line.LN6380811-1"      ,   2,       -56.7,       -15.5
"Line.LN5683832-1"      ,   1,         3.7,         1.0,         0.0,         0.0,         0.0,         0.0
"Line.LN5683832-1"      ,   2,        -3.7,        -1.0
"Line.LN6077778-1"      ,   1,         3.4,         1.0,         0.0,         0.0,         0.0,         0.0
"Line.LN6077778-1"      ,   2,        -3.4,        -1.0
"Line.LN5561442-2"      ,   1,     -3435.4,      2615.4,         0.0,         0.0,         0.0,         0.0
"Line.LN5561442-2"      ,   2,      3436.6,     -2612.9
"Line.LN6259983-1"      ,   1,         4.8,         1.3,         0.0,         0.0,         0.0,         0.0
"Line.LN6259983-1"      ,   2,        -4.8,        -1.3
"Line.LN5865244-1"      ,   1,        82.6,        22.3,         0.0,         0.0,         0.0,         0.0
"Line.LN5865244-1"      ,   2,       -82.6,       -22.3
"Line.LN6350555-1"      ,   1,         4.0,         1.1,         0.0,         0.0,         0.0,         0.0
"Line.LN6350555-1"      ,   2,        -4.0,        -1.1
"Line.LN5714039-1"      ,   1,        27.1,         7.4,         0.0,         0.0,         0.0,         0.0
"Line.LN5714039-1"      ,   2,       -27.1,        -7.4
"Line.LN5889821-1"      ,   1,     -3907.4,      2418.5,         0.0,         0.0,         0.0,         0.0
"Line.LN5889821-1"      ,   2,      3909.4,     -2414.1
"Line.LN5804791-1"      ,   1,       587.9,      -807.5,         0.0,         0.0,         0.0,         0.0
"Line.LN5804791-1"      ,   2,      -587.2,       807.7
"Line.LN5653486-1"      ,   1,         6.5,         2.0,         0.0,         0.0,         0.0,         0.0
"Line.LN5653486-1"      ,   2,        -6.5,        -2.0
"Line.LN5926286-1"      ,   1,        23.5,         6.3,         0.0,         0.0,         0.0,         0.0
"Line.LN5926286-1"      ,   2,       -23.5,        -6.3
"Line.LN6318859-1"      ,   1,        -0.0,        -0.0,         0.0,         0.0,         0.0,         0.0
"Line.LN6318859-1"      ,   2,         0.0,         0.0
"Line.LN5926316-1"      ,   1,        21.6,         6.4,         0.0,         0.0,         0.0,         0.0
"Line.LN5926316-1"      ,   2,       -21.6,        -6.4
"Line.LN5591703-1"      ,   1,         9.3,         2.5,         0.0,         0.0,         0.0,         0.0
"Line.LN5591703-1"      ,   2,        -9.3,        -2.5
"Line.LN5531333-1"      ,   1,        14.0,         3.9,         0.0,         0.0,         0.0,         0.0
"Line.LN5531333-1"      ,   2,       -14.0,        -3.9
"Line.LN6047581-1"      ,   1,         3.5,         0.9,         0.0,         0.0,         0.0,         0.0
"Line.LN6047581-1"      ,   2,        -3.5,        -0.9
"Line.LN6349077-1"      ,   1,         0.0,        -0.0,         0.0,         0.0,         0.0,         0.0
"Line.LN6349077-1"      ,   2,        -0.0,        -0.0
"Line.LN6350574-1"      ,   1,        95.6,        25.9,         0.0,         0.0,         0.0,         0.0
"Line.LN6350574-1"      ,   2,       -95.6,       -25.9
"Line.LN6320343-1"      ,   1,        74.6,        20.3,         0.0,         0.0,         0.0,         0.0
"Line.LN6320343-1"      ,   2,       -74.6,       -20.3
"Line.LN81048100-5"     ,   1,        76.1,        20.9,         0.0,         0.0,         0.0,         0.0
"Line.LN81048100-5"     ,   2,       -76.1,       -21.0
"Line.LN6348946-1"      ,   1,         3.6,         1.0,         0.0,         0.0,         0.0,         0.0
"Line.LN6348946-1"      ,   2,        -3.6,        -1.0
"Line.LN5744351-1"      ,   1,         3.8,         1.1,         0.0,         0.0,         0.0,         0.0
"Line.LN5744351-1"      ,   2,        -3.8,        -1.1
"Line.LN5472342-1"      ,   1,         3.8,         1.0,         0.0,         0.0,         0.0,         0.0
"Line.LN5472342-1"      ,   2,        -3.8,        -1.0
"Line.LN5621849-1"      ,   1,        10.7,         3.0,         0.0,         0.0,         0.0,         0.0
"Line.LN5621849-1"      ,   2,       -10.7,        -3.0
"Line.LN6379375-1"      ,   1,        10.8,         2.9,         0.0,         0.0,         0.0,         0.0
"Line.LN6379375-1"      ,   2,       -10.8,        -2.9
"Line.LN6028890-1"      ,   1,        17.4,         5.0,         0.0,         0.0,         0.0,         0.0
"Line.LN6028890-1"      ,   2,       -17.4,        -5.0
"Line.LN6380822-1"      ,   1,       858.8,       233.6,         0.0,         0.0,         0.0,         0.0
"Line.LN6380822-1"      ,   2,      -858.4,      -233.2
"Line.LN5835131-1"      ,   1,       401.4,       109.4,         0.0,         0.0,         0.0,         0.0
"Line.LN5835131-1"      ,   2,      -401.3,      -109.3
"Line.LN5803262-7"      ,   1,         2.1,         0.6,         0.0,         0.0,         0.0,         0.0
"Line.LN5803262-7"      ,   2,        -2.1,        -0.6
"Line.LN81048089-1"     ,   1,        42.4,        11.7,         0.0,         0.0,         0.0,         0.0
"Line.LN81048089-1"     ,   2,       -42.4,       -11.7
"Line.LN6201699-1"      ,   1,         8.4,         2.3,         0.0,         0.0,         0.0,         0.0
"Line.LN6201699-1"      ,   2,        -8.4,        -2.3
"Line.LN5746548-1"      ,   1,       362.8,        98.9,         0.0,         0.0,         0.0,         0.0
"Line.LN5746548-1"      ,   2,      -362.8,       -98.9
"Line.LN5835174-1"      ,   1,       140.2,        38.2,         0.0,         0.0,         0.0,         0.0
"Line.LN5835174-1"      ,   2,      -140.1,       -38.2
"Line.LN6505947-4"      ,   1,        97.3,        26.2,         0.0,         0.0,         0.0,         0.0
"Line.LN6505947-4"      ,   2,       -97.3,       -26.2
"Line.LN5683833-1"      ,   1,        98.1,        27.1,         0.0,         0.0,         0.0,         0.0
"Line.LN5683833-1"      ,   2,       -98.1,       -27.1
"Line.LN5561439-3"      ,   1,       256.6,        70.2,         0.0,         0.0,         0.0,         0.0
"Line.LN5561439-3"      ,   2,      -256.6,       -70.3
"Line.LN6109190-1"      ,   1,         9.6,         2.8,         0.0,         0.0,         0.0,         0.0
"Line.LN6109190-1"      ,   2,        -9.6,        -2.8
"Line.LN6258435-2"      ,   1,        12.8,         3.5,         0.0,         0.0,         0.0,         0.0
"Line.LN6258435-2"      ,   2,       -12.8,        -3.5
"Line.LN5804819-1"      ,   1,         3.0,         0.8,         0.0,         0.0,         0.0,         0.0
"Line.LN5804819-1"      ,   2,        -3.0,        -0.8
"Line.LN5593215-1"      ,   1,       150.8,        40.9,         0.0,         0.0,         0.0,         0.0
"Line.LN5593215-1"      ,   2,      -150.7,       -40.9
"Line.LN5833717-1"      ,   1,       515.9,       141.0,         0.0,         0.0,         0.0,         0.0
"Line.LN5833717-1"      ,   2,      -515.8,      -141.0
"Line.LN6199557-1"      ,   1,       512.2,       139.9,         0.0,         0.0,         0.0,         0.0
"Line.LN6199557-1"      ,   2,      -512.1,      -139.9
"Line.LN5744332-1"      ,   1,         3.4,         0.9,         0.0,         0.0,         0.0,         0.0
"Line.LN5744332-1"      ,   2,        -3.4,        -0.9
"Line.LN5558790-1"      ,   1,     -3369.0,      2675.4,         0.0,         0.0,         0.0,         0.0
"Line.LN5558790-1"      ,   2,      3369.3,     -2674.8
"Line.LN6078692-1"      ,   1,       109.6,        29.9,         0.0,         0.0,         0.0,         0.0
"Line.LN6078692-1"      ,   2,      -109.6,       -29.9
"Line.LN5956482-1"      ,   1,       167.1,        46.1,         0.0,         0.0,         0.0,         0.0
"Line.LN5956482-1"      ,   2,      -167.1,       -46.1
"Line.LN5593225-1"      ,   1,         5.9,         1.6,         0.0,         0.0,         0.0,         0.0
"Line.LN5593225-1"      ,   2,        -5.9,        -1.6
"Line.LN6900591-26"     ,   1,        77.2,        20.6,         0.0,         0.0,         0.0,         0.0
"Line.LN6900591-26"     ,   2,       -77.2,       -20.6
"Line.LN5952393-1"      ,   1,        12.7,         3.7,         0.0,         0.0,         0.0,         0.0
"Line.LN5952393-1"      ,   2,       -12.7,        -3.7
"Line.LN6350531-1"      ,   1,        24.3,         6.5,         0.0,         0.0,         0.0,         0.0
"Line.LN6350531-1"      ,   2,       -24.3,        -6.5
"Line.LN5965099-10"     ,   1,       106.9,        29.1,         0.0,         0.0,         0.0,         0.0
"Line.LN5965099-10"     ,   2,      -106.9,       -29.1
"Line.LN6047568-1"      ,   1,       144.6,        39.4,         0.0,         0.0,         0.0,         0.0
"Line.LN6047568-1"      ,   2,      -144.5,       -39.3
"Line.LN5926292-1"      ,   1,         8.4,         2.3,         0.0,         0.0,         0.0,         0.0
"Line.LN5926292-1"      ,   2,        -8.4,        -2.3
"Line.LN6380806-1"      ,   1,        12.7,         3.5,         0.0,         0.0,         0.0,         0.0
"Line.LN6380806-1"      ,   2,       -12.7,        -3.5
"Line.LN6341781-3"      ,   1,         4.0,         1.1,         0.0,         0.0,         0.0,         0.0
"Line.LN6341781-3"      ,   2,        -4.0,        -1.1
"Line.LN8979367-1"      ,   1,        13.0,         3.2,         0.0,         0.0,         0.0,         0.0
"Line.LN8979367-1"      ,   2,       -13.0,        -3.3
"Line.LN6018340-1"      ,   1,         7.1,         2.0,         0.0,         0.0,         0.0,         0.0
"Line.LN6018340-1"      ,   2,        -7.1,        -2.0
"Line.LN6380847-1"      ,   1,       304.9,        83.4,         0.0,         0.0,         0.0,         0.0
"Line.LN6380847-1"      ,   2,      -304.7,       -83.4
"Line.LN8961797-1"      ,   1,        22.0,         5.7,         0.0,         0.0,         0.0,         0.0
"Line.LN8961797-1"      ,   2,       -22.0,        -5.8
"Line.LN6077797-1"      ,   1,        11.5,         3.3,         0.0,         0.0,         0.0,         0.0
"Line.LN6077797-1"      ,   2,       -11.5,        -3.3
"Line.LN6077773-1"      ,   1,        20.7,         5.7,         0.0,         0.0,         0.0,         0.0
"Line.LN6077773-1"      ,   2,       -20.7,        -5.7
"Line.LN5837496-4"      ,   1,         3.1,         0.9,         0.0,         0.0,         0.0,         0.0
"Line.LN5837496-4"      ,   2,        -3.1,        -0.9
"Line.LN5623392-1"      ,   1,        28.5,         7.7,         0.0,         0.0,         0.0,         0.0
"Line.LN5623392-1"      ,   2,       -28.5,        -7.7
"Line.LN5624380-1"      ,   1,         7.8,         2.1,         0.0,         0.0,         0.0,         0.0
"Line.LN5624380-1"      ,   2,        -7.8,        -2.1
"Line.LN6422809-2"      ,   1,      1757.9,       482.4,         0.0,         0.0,         0.0,         0.0
"Line.LN6422809-2"      ,   2,     -1757.9,      -482.3
"Line.LN5799561-1"      ,   1,       451.4,      -503.2,         0.0,         0.0,         0.0,         0.0
"Line.LN5799561-1"      ,   2,      -451.3,       503.3
"Line.LN6229818-1"      ,   1,         5.1,         1.4,         0.0,         0.0,         0.0,         0.0
"Line.LN6229818-1"      ,   2,        -5.1,        -1.4
"Line.LN5593230-1"      ,   1,       168.2,        45.8,         0.0,         0.0,         0.0,         0.0
"Line.LN5593230-1"      ,   2,      -168.1,       -45.8
"Line.LN5563901-3"      ,   1,      3750.0,      -132.0,         0.0,         0.0,         0.0,         0.0
"Line.LN5563901-3"      ,   2,     -3749.2,       133.8
"Line.LN6320339-1"      ,   1,        19.4,         5.2,         0.0,         0.0,         0.0,         0.0
"Line.LN6320339-1"      ,   2,       -19.4,        -5.2
"Line.LN5986927-1"      ,   1,         7.2,         1.9,         0.0,         0.0,         0.0,         0.0
"Line.LN5986927-1"      ,   2,        -7.2,        -1.9
"Line.LN6047567-1"      ,   1,         8.9,         2.4,         0.0,         0.0,         0.0,         0.0
"Line.LN6047567-1"      ,   2,        -8.9,        -2.4
"Line.LN5714047-1"      ,   1,        60.6,        16.6,         0.0,         0.0,         0.0,         0.0
"Line.LN5714047-1"      ,   2,       -60.6,       -16.6
"Line.LN5563934-1"      ,   1,        26.8,         7.3,         0.0,         0.0,         0.0,         0.0
"Line.LN5563934-1"      ,   2,       -26.8,        -7.3
"Line.LN6169249-3"      ,   1,         5.4,         1.5,         0.0,         0.0,         0.0,         0.0
"Line.LN6169249-3"      ,   2,        -5.4,        -1.5
"Line.LN6230800-1"      ,   1,         2.2,         0.7,         0.0,         0.0,         0.0,         0.0
"Line.LN6230800-1"      ,   2,        -2.2,        -0.7
"Line.LN5985339-2"      ,   1,         6.1,         1.7,         0.0,         0.0,         0.0,         0.0
"Line.LN5985339-2"      ,   2,        -6.1,        -1.7
"Line.LN5898059-3"      ,   1,         8.9,         2.4,         0.0,         0.0,         0.0,         0.0
"Line.LN5898059-3"      ,   2,        -8.9,        -2.4
"Line.LN5956457-2"      ,   1,       389.2,       106.0,         0.0,         0.0,         0.0,         0.0
"Line.LN5956457-2"      ,   2,      -389.1,      -106.0
"Line.LN5865229-1"      ,   1,        56.1,        15.0,         0.0,         0.0,         0.0,         0.0
"Line.LN5865229-1"      ,   2,       -56.1,       -15.0
"Line.LN6018331-1"      ,   1,       430.1,      -509.6,         0.0,         0.0,         0.0,         0.0
"Line.LN6018331-1"      ,   2,      -430.0,       509.7
"Line.LN6199535-1"      ,   1,         2.4,         0.7,         0.0,         0.0,         0.0,         0.0
"Line.LN6199535-1"      ,   2,        -2.4,        -0.7
"Line.LN5502538-1"      ,   1,       416.8,       113.6,         0.0,         0.0,         0.0,         0.0
"Line.LN5502538-1"      ,   2,      -416.5,      -113.6
"Line.LN5742816-2"      ,   1,        22.8,         6.5,         0.0,         0.0,         0.0,         0.0
"Line.LN5742816-2"      ,   2,       -22.8,        -6.5
"Line.LN6229803-3"      ,   1,         7.1,         1.9,         0.0,         0.0,         0.0,         0.0
"Line.LN6229803-3"      ,   2,        -7.1,        -1.9
"Line.LN5986930-1"      ,   1,        70.3,        19.0,         0.0,         0.0,         0.0,         0.0
"Line.LN5986930-1"      ,   2,       -70.3,       -19.0
"Line.LN6350532-1"      ,   1,         3.8,         1.1,         0.0,         0.0,         0.0,         0.0
"Line.LN6350532-1"      ,   2,        -3.8,        -1.1
"Line.LN5588016-3"      ,   1,        67.5,        18.3,         0.0,         0.0,         0.0,         0.0
"Line.LN5588016-3"      ,   2,       -67.5,       -18.3
...
"Line.V7173_48332_SW"   ,   1,      3508.5,      -276.6,         0.0,         0.0,         0.0,         0.0
"Line.V7173_48332_SW"   ,   2,     -3508.4,       276.7
"Line.LN5534969-2"      ,   1,      3508.8,      -275.8,         0.0,         0.0,         0.0,         0.0
"Line.LN5534969-2"      ,   2,     -3508.5,       276.6
"Line.LN6015891-1"      ,   1,         0.0,        -0.0,         0.0,         0.0,         0.0,         0.0
"Line.LN6015891-1"      ,   2,         0.0,         0.0
"Line.LN5683816-1"      ,   1,       416.1,       114.0,         0.0,         0.0,         0.0,         0.0
"Line.LN5683816-1"      ,   2,      -415.9,      -114.0
"Line.LN6199561-1"      ,   1,         2.9,         0.9,         0.0,         0.0,         0.0,         0.0
"Line.LN6199561-1"      ,   2,        -2.9,        -0.9
"Line.LN6900591-12"     ,   1,        54.2,        14.4,         0.0,         0.0,         0.0,         0.0
"Line.LN6900591-12"     ,   2,       -54.2,       -14.4
"Line.LN6411363-1"      ,   1,         5.1,         1.4,         0.0,         0.0,         0.0,         0.0
"Line.LN6411363-1"      ,   2,        -5.1,        -1.4
"Line.LN6108130-6"      ,   1,         4.5,         1.2,         0.0,         0.0,         0.0,         0.0
"Line.LN6108130-6"      ,   2,        -4.5,        -1.2
"Line.LN5837516-1"      ,   1,        10.3,         2.8,         0.0,         0.0,         0.0,         0.0
"Line.LN5837516-1"      ,   2,       -10.3,        -2.8
"Line.LN6017301-4"      ,   1,         2.9,         0.8,         0.0,         0.0,         0.0,         0.0
"Line.LN6017301-4"      ,   2,        -2.9,        -0.9
"Line.LN5981121-1"      ,   1,         3.6,         0.9,         0.0,         0.0,         0.0,         0.0
"Line.LN5981121-1"      ,   2,        -3.6,        -1.0
"Line.LN81048107-4"     ,   1,        16.0,         4.2,         0.0,         0.0,         0.0,         0.0
"Line.LN81048107-4"     ,   2,       -16.0,        -4.3
"Line.LN5472374-1"      ,   1,       121.3,        32.7,         0.0,         0.0,         0.0,         0.0
"Line.LN5472374-1"      ,   2,      -121.2,       -32.7
"Line.LN5746550-2"      ,   1,         4.1,         1.1,         0.0,         0.0,         0.0,         0.0
"Line.LN5746550-2"      ,   2,        -4.1,        -1.1
"Line.LN5561437-1"      ,   1,       126.3,        34.2,         0.0,         0.0,         0.0,         0.0
"Line.LN5561437-1"      ,   2,      -126.3,       -34.2
"Line.LN6439986-3"      ,   1,         4.1,         1.2,         0.0,         0.0,         0.0,         0.0
"Line.LN6439986-3"      ,   2,        -4.1,        -1.2
"Line.LN5744324-1"      ,   1,        24.4,         6.6,         0.0,         0.0,         0.0,         0.0
"Line.LN5744324-1"      ,   2,       -24.4,        -6.7
"Line.LN6376708-1"      ,   1,        18.6,         5.2,         0.0,         0.0,         0.0,         0.0
"Line.LN6376708-1"      ,   2,       -18.6,        -5.2
"Line.LN5895816-2"      ,   1,        20.6,         6.0,         0.0,         0.0,         0.0,         0.0
"Line.LN5895816-2"      ,   2,       -20.6,        -6.0
"Line.LN5593235-1"      ,   1,         4.3,         1.2,         0.0,         0.0,         0.0,         0.0
"Line.LN5593235-1"      ,   2,        -4.3,        -1.2
"Line.LN81354563-2"     ,   1,        48.5,        13.1,         0.0,         0.0,         0.0,         0.0
"Line.LN81354563-2"     ,   2,       -48.5,       -13.1
"Line.LN5866260-1"      ,   1,         2.0,         0.7,         0.0,         0.0,         0.0,         0.0
"Line.LN5866260-1"      ,   2,        -2.0,        -0.7
"Line.LN6018243-1"      ,   1,        23.0,         6.4,         0.0,         0.0,         0.0,         0.0
"Line.LN6018243-1"      ,   2,       -23.0,        -6.4
"Line.LN5928743-3"      ,   1,         8.4,         2.2,         0.0,         0.0,         0.0,         0.0
"Line.LN5928743-3"      ,   2,        -8.4,        -2.2
"Line.LN5957501-1"      ,   1,         2.2,         0.6,         0.0,         0.0,         0.0,         0.0
"Line.LN5957501-1"      ,   2,        -2.2,        -0.6
"Line.LN6379357-1"      ,   1,        17.5,         4.9,         0.0,         0.0,         0.0,         0.0
"Line.LN6379357-1"      ,   2,       -17.5,        -4.9
"Line.LN6291252-2"      ,   1,      1273.6,      -608.6,         0.0,         0.0,         0.0,         0.0
"Line.LN6291252-2"      ,   2,     -1273.5,       608.8
"Line.LN6440002-3"      ,   1,       109.3,        29.7,         0.0,         0.0,         0.0,         0.0
"Line.LN6440002-3"      ,   2,      -109.3,       -29.7
"Line.LN6076346-1"      ,   1,       343.2,        94.5,         0.0,         0.0,         0.0,         0.0
"Line.LN6076346-1"      ,   2,      -343.0,       -94.4
"Line.LN8978752-1"      ,   1,        36.0,        12.6,         0.0,         0.0,         0.0,         0.0
"Line.LN8978752-1"      ,   2,       -36.0,       -12.6
"Line.LN5621834-1"      ,   1,        30.4,         8.2,         0.0,         0.0,         0.0,         0.0
"Line.LN5621834-1"      ,   2,       -30.4,        -8.2
"Line.LN6108123-1"      ,   1,         3.8,         1.0,         0.0,         0.0,         0.0,         0.0
"Line.LN6108123-1"      ,   2,        -3.8,        -1.0
"Line.LN6505952-4"      ,   1,         6.6,         1.8,         0.0,         0.0,         0.0,         0.0
"Line.LN6505952-4"      ,   2,        -6.6,        -1.8
"Line.LN5835159-1"      ,   1,         3.2,         0.9,         0.0,         0.0,         0.0,         0.0
"Line.LN5835159-1"      ,   2,        -3.2,        -0.9
"Line.LN5698090-2"      ,   1,        48.1,        12.4,         0.0,         0.0,         0.0,         0.0
"Line.LN5698090-2"      ,   2,       -48.1,       -12.4
"Line.LN5714050-1"      ,   1,         9.1,         2.5,         0.0,         0.0,         0.0,         0.0
"Line.LN5714050-1"      ,   2,        -9.1,        -2.5
"Line.LN5502529-1"      ,   1,         3.9,         1.2,         0.0,         0.0,         0.0,         0.0
"Line.LN5502529-1"      ,   2,        -3.9,        -1.2
"Line.LN5594236-1"      ,   1,       447.4,      -504.5,         0.0,         0.0,         0.0,         0.0
"Line.LN5594236-1"      ,   2,      -447.3,       504.6
"Line.LN5593248-1"      ,   1,         4.2,         1.1,         0.0,         0.0,         0.0,         0.0
"Line.LN5593248-1"      ,   2,        -4.2,        -1.1
"Line.LN5865272-1"      ,   1,       275.7,        75.3,         0.0,         0.0,         0.0,         0.0
"Line.LN5865272-1"      ,   2,      -275.6,       -75.3
"Line.LN5924696-3"      ,   1,         3.3,         0.9,         0.0,         0.0,         0.0,         0.0
"Line.LN5924696-3"      ,   2,        -3.3,        -0.9
"Line.LN5589096-1"      ,   1,         5.7,         1.6,         0.0,         0.0,         0.0,         0.0
"Line.LN5589096-1"      ,   2,        -5.7,        -1.6
"Line.LN6017295-1"      ,   1,       195.8,        53.3,         0.0,         0.0,         0.0,         0.0
"Line.LN6017295-1"      ,   2,      -195.7,       -53.3
"Line.LN5970852-1"      ,   1,        50.0,        14.4,         0.0,         0.0,         0.0,         0.0
"Line.LN5970852-1"      ,   2,       -50.0,       -14.4
"Line.LN5683820-1"      ,   1,         3.1,         0.9,         0.0,         0.0,         0.0,         0.0
"Line.LN5683820-1"      ,   2,        -3.1,        -0.9
"Line.LN6286966-3"      ,   1,         3.2,         0.9,         0.0,         0.0,         0.0,         0.0
"Line.LN6286966-3"      ,   2,        -3.2,        -0.9
"Line.LN6167715-1"      ,   1,         2.5,         0.7,         0.0,         0.0,         0.0,         0.0
"Line.LN6167715-1"      ,   2,        -2.5,        -0.7
"Line.LN6108140-2"      ,   1,         4.9,         1.4,         0.0,         0.0,         0.0,         0.0
"Line.LN6108140-2"      ,   2,        -4.9,        -1.4
"Line.LN6228279-1"      ,   1,        11.1,         3.1,         0.0,         0.0,         0.0,         0.0
"Line.LN6228279-1"      ,   2,       -11.1,        -3.1
"Line.LN5803264-2"      ,   1,         4.8,         1.3,         0.0,         0.0,         0.0,         0.0
"Line.LN5803264-2"      ,   2,        -4.8,        -1.3
"Line.LN6132680-1"      ,   1,       391.4,       107.5,         0.0,         0.0,         0.0,         0.0
"Line.LN6132680-1"      ,   2,      -391.2,      -107.4
"Line.LN5531195-1"      ,   1,      1023.2,      -678.4,         0.0,         0.0,         0.0,         0.0
"Line.LN5531195-1"      ,   2,     -1023.2,       678.5
"Line.LN5985361-1"      ,   1,       260.6,        70.8,         0.0,         0.0,         0.0,         0.0
"Line.LN5985361-1"      ,   2,      -260.5,       -70.9
"Line.LN6102293-1"      ,   1,        26.6,         7.1,         0.0,         0.0,         0.0,         0.0
"Line.LN6102293-1"      ,   2,       -26.6,        -7.1
"Line.LN8989758-1"      ,   1,        30.7,         8.4,         0.0,         0.0,         0.0,         0.0
"Line.LN8989758-1"      ,   2,       -30.7,        -8.4
"Line.LN6229790-1"      ,   1,         7.6,         2.2,         0.0,         0.0,         0.0,         0.0
"Line.LN6229790-1"      ,   2,        -7.6,        -2.2
"Line.LN5956469-1"      ,   1,        22.1,         5.9,         0.0,         0.0,         0.0,         0.0
"Line.LN5956469-1"      ,   2,       -22.1,        -5.9
"Line.LN5803270-3"      ,   1,         5.9,         1.7,         0.0,         0.0,         0.0,         0.0
"Line.LN5803270-3"      ,   2,        -5.9,        -1.7
"Line.LN81048102-6"     ,   1,        53.6,        14.6,         0.0,         0.0,         0.0,         0.0
"Line.LN81048102-6"     ,   2,       -53.6,       -14.7
"Line.LN6440070-1"      ,   1,         0.0,        -0.0,         0.0,         0.0,         0.0,         0.0
"Line.LN6440070-1"      ,   2,        -0.0,         0.0
"Line.LN6048626-1"      ,   1,     -3392.8,      2654.6,         0.0,         0.0,         0.0,         0.0
"Line.LN6048626-1"      ,   2,      3393.9,     -2652.1
"Line.LN6076248-1"      ,   1,       198.3,        54.2,         0.0,         0.0,         0.0,         0.0
"Line.LN6076248-1"      ,   2,      -198.3,       -54.2
"Line.LN6137083-1"      ,   1,         0.0,        -0.0,         0.0,         0.0,         0.0,         0.0
"Line.LN6137083-1"      ,   2,         0.0,        -0.0
"Line.LN6286261-1"      ,   1,         3.3,         1.0,         0.0,         0.0,         0.0,         0.0
"Line.LN6286261-1"      ,   2,        -3.3,        -1.0
"Line.LN5653477-1"      ,   1,         3.8,         1.1,         0.0,         0.0,         0.0,         0.0
"Line.LN5653477-1"      ,   2,        -3.8,        -1.1
"Line.LN6078810-1"      ,   1,         2.6,         0.8,         0.0,         0.0,         0.0,         0.0
"Line.LN6078810-1"      ,   2,        -2.6,        -0.8
"Line.LN6199526-1"      ,   1,         3.8,         1.0,         0.0,         0.0,         0.0,         0.0
"Line.LN6199526-1"      ,   2,        -3.8,        -1.0
"Line.LN6108125-2"      ,   1,      3518.4,      -261.7,         0.0,         0.0,         0.0,         0.0
"Line.LN6108125-2"      ,   2,     -3517.5,       263.7
"Line.LN6108149-1"      ,   1,         7.6,         2.1,         0.0,         0.0,         0.0,         0.0
"Line.LN6108149-1"      ,   2,        -7.6,        -2.1
"Line.LN6230759-1"      ,   1,         3.6,         1.0,         0.0,         0.0,         0.0,         0.0
"Line.LN6230759-1"      ,   2,        -3.6,        -1.0
"Line.LN8979249-1"      ,   1,        27.7,         7.6,         0.0,         0.0,         0.0,         0.0
"Line.LN8979249-1"      ,   2,       -27.7,        -7.6
"Line.LN5865237-1"      ,   1,         3.2,         0.9,         0.0,         0.0,         0.0,         0.0
"Line.LN5865237-1"      ,   2,        -3.2,        -0.9
"Line.LN5706733-2"      ,   1,         9.3,         2.6,         0.0,         0.0,         0.0,         0.0
"Line.LN5706733-2"      ,   2,        -9.3,        -2.6
"Line.LN5745348-1"      ,   1,       401.4,      -518.0,         0.0,         0.0,         0.0,         0.0
"Line.LN5745348-1"      ,   2,      -401.3,       518.1
"Line.LN5898059-2"      ,   1,         8.9,         2.4,         0.0,         0.0,         0.0,         0.0
"Line.LN5898059-2"      ,   2,        -8.9,        -2.4
"Line.LN5744367-1"      ,   1,        85.9,        23.4,         0.0,         0.0,         0.0,         0.0
"Line.LN5744367-1"      ,   2,       -85.9,       -23.4
"Line.LN5773136-1"      ,   1,         2.2,         0.6,         0.0,         0.0,         0.0,         0.0
"Line.LN5773136-1"      ,   2,        -2.2,        -0.6
"Line.LN5472403-2"      ,   1,       132.6,        35.5,         0.0,         0.0,         0.0,         0.0
"Line.LN5472403-2"      ,   2,      -132.6,       -35.5
"Line.LN5712496-1"      ,   1,         2.9,         0.9,         0.0,         0.0,         0.0,         0.0
"Line.LN5712496-1"      ,   2,        -2.9,        -0.9
"Line.LN5772710-1"      ,   1,        51.3,        14.0,         0.0,         0.0,         0.0,         0.0
"Line.LN5772710-1"      ,   2,       -51.3,       -14.0
"Line.LN6139544-1"      ,   1,       109.5,        29.9,         0.0,         0.0,         0.0,         0.0
"Line.LN6139544-1"      ,   2,      -109.5,       -29.9
"Line.LN6015788-2"      ,   1,        17.0,        13.7,         0.0,         0.0,         0.0,         0.0
"Line.LN6015788-2"      ,   2,       -17.0,       -13.7
"Line.LN5591702-1"      ,   1,        74.3,        20.5,         0.0,         0.0,         0.0,         0.0
"Line.LN5591702-1"      ,   2,       -74.3,       -20.5
"Line.LN5986923-1"      ,   1,        46.7,        12.5,         0.0,         0.0,         0.0,         0.0
"Line.LN5986923-1"      ,   2,       -46.7,       -12.6
"Line.LN6301772-2"      ,   1,        20.9,         6.0,         0.0,         0.0,         0.0,         0.0
"Line.LN6301772-2"      ,   2,       -20.9,        -6.0
"Line.LN6001653-2"      ,   1,       334.1,        90.4,         0.0,         0.0,         0.0,         0.0
"Line.LN6001653-2"      ,   2,      -333.9,       -90.4
"Line.LN6017283-1"      ,   1,        24.2,         6.5,         0.0,         0.0,         0.0,         0.0
"Line.LN6017283-1"      ,   2,       -24.2,        -6.5
"Line.LN5686079-1"      ,   1,       700.4,       189.3,         0.0,         0.0,         0.0,         0.0
"Line.LN5686079-1"      ,   2,      -700.2,      -189.2
"Line.LN5527264-7"      ,   1,      3519.4,      -259.2,         0.0,         0.0,         0.0,         0.0
"Line.LN5527264-7"      ,   2,     -3519.0,       260.1
"Line.LN5683813-1"      ,   1,         7.0,         1.8,         0.0,         0.0,         0.0,         0.0
"Line.LN5683813-1"      ,   2,        -7.0,        -1.8
"Line.LN5986935-1"      ,   1,       355.6,        97.5,         0.0,         0.0,         0.0,         0.0
"Line.LN5986935-1"      ,   2,      -355.5,       -97.5
"Line.LN5956457-3"      ,   1,       389.1,       106.0,         0.0,         0.0,         0.0,         0.0
"Line.LN5956457-3"      ,   2,      -389.1,      -106.0
"Line.LN5654471-1"      ,   1,       417.9,      -513.5,         0.0,         0.0,         0.0,         0.0
"Line.LN5654471-1"      ,   2,      -417.9,       513.6
"Line.LN6409800-1"      ,   1,         4.6,         1.3,         0.0,         0.0,         0.0,         0.0
"Line.LN6409800-1"      ,   2,        -4.6,        -1.3
"Line.LN6411365-1"      ,   1,         5.9,         1.6,         0.0,         0.0,         0.0,         0.0
"Line.LN6411365-1"      ,   2,        -5.9,        -1.6
"Line.LN6320328-1"      ,   1,        51.8,        14.1,         0.0,         0.0,         0.0,         0.0
"Line.LN6320328-1"      ,   2,       -51.7,       -14.1
"Line.LN5712477-3"      ,   1,        58.6,        16.1,         0.0,         0.0,         0.0,         0.0
"Line.LN5712477-3"      ,   2,       -58.6,       -16.1
"Line.LN5621857-3"      ,   1,        13.3,         3.5,         0.0,         0.0,         0.0,         0.0
"Line.LN5621857-3"      ,   2,       -13.3,        -3.5
"Line.LN6440071-1"      ,   1,        48.4,        13.5,         0.0,         0.0,         0.0,         0.0
"Line.LN6440071-1"      ,   2,       -48.4,       -13.6
"Line.LN5472355-1"      ,   1,         6.6,         1.8,         0.0,         0.0,         0.0,         0.0
"Line.LN5472355-1"      ,   2,        -6.6,        -1.8
"Line.LN6351523-3"      ,   1,       213.9,        58.6,         0.0,         0.0,         0.0,         0.0
"Line.LN6351523-3"      ,   2,      -213.8,       -58.5
...
"Line.V9287_48332_SW"   ,   1,        49.7,        14.0,         0.0,         0.0,         0.0,         0.0
"Line.V9287_48332_SW"   ,   2,       -49.7,       -14.0
"Line.LN6019477-1"      ,   1,        49.7,        14.0,         0.0,         0.0,         0.0,         0.0
"Line.LN6019477-1"      ,   2,       -49.7,       -14.0
"Line.LN5593227-1"      ,   1,        14.1,         3.8,         0.0,         0.0,         0.0,         0.0
"Line.LN5593227-1"      ,   2,       -14.1,        -3.8
"Line.LN6409869-1"      ,   1,         0.0,        -0.0,         0.0,         0.0,         0.0,         0.0
"Line.LN6409869-1"      ,   2,        -0.0,        -0.0
"Line.LN6321419-2"      ,   1,        12.5,         3.4,         0.0,         0.0,         0.0,         0.0
"Line.LN6321419-2"      ,   2,       -12.5,        -3.4
"Line.LN6348954-1"      ,   1,         3.6,         1.0,         0.0,         0.0,         0.0,         0.0
"Line.LN6348954-1"      ,   2,        -3.6,        -1.0
"Line.LN6201695-2"      ,   1,         4.7,         1.3,         0.0,         0.0,         0.0,         0.0
"Line.LN6201695-2"      ,   2,        -4.7,        -1.3
"Line.LN6048635-1"      ,   1,        12.5,         3.4,         0.0,         0.0,         0.0,         0.0
"Line.LN6048635-1"      ,   2,       -12.5,        -3.4
"Line.LN6199519-1"      ,   1,       125.2,        34.1,         0.0,         0.0,         0.0,         0.0
"Line.LN6199519-1"      ,   2,      -125.1,       -34.1
"Line.LN6505938-4"      ,   1,         8.3,         2.3,         0.0,         0.0,         0.0,         0.0
"Line.LN6505938-4"      ,   2,        -8.3,        -2.3
"Line.LN5472375-1"      ,   1,       353.1,        96.2,         0.0,         0.0,         0.0,         0.0
"Line.LN5472375-1"      ,   2,      -353.1,       -96.2
"Line.LN5835124-1"      ,   1,         5.5,         1.5,         0.0,         0.0,         0.0,         0.0
"Line.LN5835124-1"      ,   2,        -5.5,        -1.6
"Line.LN6103927-1"      ,   1,         3.2,         1.0,         0.0,         0.0,         0.0,         0.0
"Line.LN6103927-1"      ,   2,        -3.2,        -1.0
"Line.LN6138622-1"      ,   1,        14.1,         3.8,         0.0,         0.0,         0.0,         0.0
"Line.LN6138622-1"      ,   2,       -14.1,        -3.8
"Line.LN5776673-1"      ,   1,        37.4,        10.2,         0.0,         0.0,         0.0,         0.0
"Line.LN5776673-1"      ,   2,       -37.4,       -10.2
"Line.LN6074369-1"      ,   1,        12.4,         3.4,         0.0,         0.0,         0.0,         0.0
"Line.LN6074369-1"      ,   2,       -12.4,        -3.4
"Line.LN5621826-1"      ,   1,         3.5,         1.0,         0.0,         0.0,         0.0,         0.0
"Line.LN5621826-1"      ,   2,        -3.5,        -1.0
"Line.LN6506312-2"      ,   1,        32.0,         8.8,         0.0,         0.0,         0.0,         0.0
"Line.LN6506312-2"      ,   2,       -32.0,        -8.9
"Line.LN6046046-1"      ,   1,         6.0,         1.6,         0.0,         0.0,         0.0,         0.0
"Line.LN6046046-1"      ,   2,        -6.0,        -1.6
"Line.LN6138589-1"      ,   1,         2.4,         0.7,         0.0,         0.0,         0.0,         0.0
"Line.LN6138589-1"      ,   2,        -2.4,        -0.7
"Line.LN6258445-1"      ,   1,         4.1,         1.2,         0.0,         0.0,         0.0,         0.0
"Line.LN6258445-1"      ,   2,        -4.1,        -1.2
"Line.LN5653480-1"      ,   1,      3174.2,       896.6,         0.0,         0.0,         0.0,         0.0
"Line.LN5653480-1"      ,   2,     -3172.3,      -894.8
"Line.LN5717630-1"      ,   1,        62.0,        16.9,         0.0,         0.0,         0.0,         0.0
"Line.LN5717630-1"      ,   2,       -62.0,       -16.9
"Line.LN5956463-1"      ,   1,       580.1,      -809.8,         0.0,         0.0,         0.0,         0.0
"Line.LN5956463-1"      ,   2,      -579.1,       810.1
"Line.LN5744328-1"      ,   1,        33.5,         9.0,         0.0,         0.0,         0.0,         0.0
"Line.LN5744328-1"      ,   2,       -33.5,        -9.0
"Line.LN8979254-1"      ,   1,        19.1,         5.5,         0.0,         0.0,         0.0,         0.0
"Line.LN8979254-1"      ,   2,       -19.1,        -5.5
"Line.LN5620694-1"      ,   1,        10.1,         2.7,         0.0,         0.0,         0.0,         0.0
"Line.LN5620694-1"      ,   2,       -10.1,        -2.7
"Line.LN6048634-1"      ,   1,     -2713.8,      1270.7,         0.0,         0.0,         0.0,         0.0
"Line.LN6048634-1"      ,   2,      2714.2,     -1269.8
"Line.LN5895779-1"      ,   1,         2.9,         0.8,         0.0,         0.0,         0.0,         0.0
"Line.LN5895779-1"      ,   2,        -2.9,        -0.8
"Line.LN5951197-2"      ,   1,        13.8,         3.7,         0.0,         0.0,         0.0,         0.0
"Line.LN5951197-2"      ,   2,       -13.8,        -3.7
"Line.LN5563942-3"      ,   1,     -2896.6,      2188.8,         0.0,         0.0,         0.0,         0.0
"Line.LN5563942-3"      ,   2,      2897.1,     -2187.6
"Line.LN5835123-1"      ,   1,        13.0,         3.2,         0.0,         0.0,         0.0,         0.0
"Line.LN5835123-1"      ,   2,       -13.0,        -3.2
"Line.LN5956483-1"      ,   1,         3.7,         1.1,         0.0,         0.0,         0.0,         0.0
"Line.LN5956483-1"      ,   2,        -3.7,        -1.1
"Line.LN6291153-1"      ,   1,         2.9,         0.9,         0.0,         0.0,         0.0,         0.0
"Line.LN6291153-1"      ,   2,        -2.9,        -0.9
"Line.LN5683841-1"      ,   1,        11.5,         3.1,         0.0,         0.0,         0.0,         0.0
"Line.LN5683841-1"      ,   2,       -11.5,        -3.1
"Line.LN5804802-1"      ,   1,       528.9,      -824.0,         0.0,         0.0,         0.0,         0.0
"Line.LN5804802-1"      ,   2,      -528.2,       824.2
"Line.LN6167753-1"      ,   1,         3.5,         0.9,         0.0,         0.0,         0.0,         0.0
"Line.LN6167753-1"      ,   2,        -3.5,        -0.9
"Line.LN6047569-1"      ,   1,         2.4,         0.7,         0.0,         0.0,         0.0,         0.0
"Line.LN6047569-1"      ,   2,        -2.4,        -0.7
"Line.LN6229809-1"      ,   1,       362.8,        98.9,         0.0,         0.0,         0.0,         0.0
"Line.LN6229809-1"      ,   2,      -362.5,       -98.8
"Line.LN5804781-1"      ,   1,        55.2,        14.9,         0.0,         0.0,         0.0,         0.0
"Line.LN5804781-1"      ,   2,       -55.2,       -14.9
"Line.LN6352701-1"      ,   1,        -0.0,        -0.0,         0.0,         0.0,         0.0,         0.0
"Line.LN6352701-1"      ,   2,         0.0,         0.0
"Line.LN5955074-2"      ,   1,        46.0,        12.0,         0.0,         0.0,         0.0,         0.0
"Line.LN5955074-2"      ,   2,       -46.0,       -12.0
"Line.LN6229805-1"      ,   1,         9.6,         2.7,         0.0,         0.0,         0.0,         0.0
"Line.LN6229805-1"      ,   2,        -9.6,        -2.7
"Line.LN6411376-1"      ,   1,        36.6,        10.2,         0.0,         0.0,         0.0,         0.0
"Line.LN6411376-1"      ,   2,       -36.6,       -10.2
"Line.LN5654485-1"      ,   1,         3.6,         0.9,         0.0,         0.0,         0.0,         0.0
"Line.LN5654485-1"      ,   2,        -3.6,        -0.9
"Line.LN5746550-3"      ,   1,         4.1,         1.1,         0.0,         0.0,         0.0,         0.0
"Line.LN5746550-3"      ,   2,        -4.1,        -1.1
"Line.LN6232159-1"      ,   1,         2.3,         0.6,         0.0,         0.0,         0.0,         0.0
"Line.LN6232159-1"      ,   2,        -2.3,        -0.6
"Line.LN6412346-1"      ,   1,         3.6,         1.0,         0.0,         0.0,         0.0,         0.0
"Line.LN6412346-1"      ,   2,        -3.6,        -1.0
"Line.LN6350548-1"      ,   1,         5.6,         1.7,         0.0,         0.0,         0.0,         0.0
"Line.LN6350548-1"      ,   2,        -5.6,        -1.7
"Line.LN6106658-1"      ,   1,       128.7,        34.6,         0.0,         0.0,         0.0,         0.0
"Line.LN6106658-1"      ,   2,      -128.7,       -34.6
"Line.LN6047554-1"      ,   1,         3.1,         0.9,         0.0,         0.0,         0.0,         0.0
"Line.LN6047554-1"      ,   2,        -3.1,        -0.9
"Line.LN5956458-1"      ,   1,         8.4,         2.3,         0.0,         0.0,         0.0,         0.0
"Line.LN5956458-1"      ,   2,        -8.4,        -2.3
...